7500
  -OEChem-09151922443D

 18 18  0     0  0  0  0  0  0999 V2000
    2.0237    0.0001    0.5593 C   0  0  0  0  0  0  0  0  0  0  0  0
    0.5579    0.0001    0.2841 C   0  0  0  0  0  0  0  0  0  0  0  0
   -0.1277    1.2081    0.1555 C   0  0  0  0  0  0  0  0  0  0  0  0
   -0.1275   -1.2079    0.1556 C   0  0  0  0  0  0  0  0  0  0  0  0
    2.8549   -0.0001   -0.7210 C   0  0  0  0  0  0  0  0  0  0  0  0
   -1.4987    1.2079   -0.1017 C   0  0  0  0  0  0  0  0  0  0  0  0
   -1.4985   -1.2080   -0.1016 C   0  0  0  0  0  0  0  0  0  0  0  0
   -2.1841   -0.0001   -0.2303 C   0  0  0  0  0  0  0  0  0  0  0  0
    2.2907    0.8744    1.1662 H   0  0  0  0  0  0  0  0  0  0  0  0
    2.2907   -0.8738    1.1666 H   0  0  0  0  0  0  0  0  0  0  0  0
    0.3951    2.1560    0.2518 H   0  0  0  0  0  0  0  0  0  0  0  0
    0.3953   -2.1558    0.2519 H   0  0  0  0  0  0  0  0  0  0  0  0
    2.6442   -0.8858   -1.3298 H   0  0  0  0  0  0  0  0  0  0  0  0
    3.9222   -0.0001   -0.4784 H   0  0  0  0  0  0  0  0  0  0  0  0
    2.6441    0.8854   -1.3301 H   0  0  0  0  0  0  0  0  0  0  0  0
   -2.0324    2.1484   -0.2024 H   0  0  0  0  0  0  0  0  0  0  0  0
   -2.0322   -2.1486   -0.2023 H   0  0  0  0  0  0  0  0  0  0  0  0
   -3.2515   -0.0003   -0.4308 H   0  0  0  0  0  0  0  0  0  0  0  0
  1  2  1  0  0  0  0
  1  5  1  0  0  0  0
  1  9  1  0  0  0  0
  1 10  1  0  0  0  0
  2  3  2  0  0  0  0
  2  4  1  0  0  0  0
  3  6  1  0  0  0  0
  3 11  1  0  0  0  0
  4  7  2  0  0  0  0
  4 12  1  0  0  0  0
  5 13  1  0  0  0  0
  5 14  1  0  0  0  0
  5 15  1  0  0  0  0
  6  8  2  0  0  0  0
  6 16  1  0  0  0  0
  7  8  1  0  0  0  0
  7 17  1  0  0  0  0
  8 18  1  0  0  0  0
M  END
